/*--------------------------------*- C++ -*----------------------------------*\
| =========                 |                                                 |
| \\      /  F ield         | OpenFOAM: The Open Source CFD Toolbox           |
|  \\    /   O peration     | Version:  2.0.0                                 |
|   \\  /    A nd           | Web:      www.OpenFOAM.org                      |
|    \\/     M anipulation  |                                                 |
\*---------------------------------------------------------------------------*/
FoamFile
{
    version     2.0;
    format      ascii;
    class       dictionary;
    location    "constant";
    object      turbulenceProperties;
}
// * * * * * * * * * * * * * * * * * * * * * * * * * * * * * * * * * * * * * //

simulationType  LES;//RAS;//

RAS
{
    RASModel        kEpsilon;

    turbulence      on;

    printCoeffs     on;
}

LES
{
    LESModel     WALE;//Smagorinsky;//kEqn;

    turbulence      on;
    printCoeffs     on;

    delta cubeRootVol;

    cubeRootVolCoeffs
    {
        deltaCoeff 1;
    }
}

// ************************************************************************* //
